tests/data/power_flow/pandapower/components/symmetric/basic-node/sym_output.json
{
  "version": "1.0",
  "type": "sym_output",
  "is_batch": false,
  "attributes": {},
  "data": {
    "node": [
      {
        "id": 1,
        "u_pu": 1.0,
        "u": 10500.0,
        "u_angle": 0.0
      },
      {
        "id": 2,
        "u_pu": 0.0,
        "u": 0.0,
        "u_angle": 0.0
      }
    ],
    "source": [
      {
        "id": 4,
        "p": -0.0,
        "q": -0.0,
        "i": 0.0,
        "s": 0.0
      }
    ]
  }
}
